*SPEF "ieee 1481-1999"
*DESIGN "iiitb_tlc"
*DATE "11:11:11 Fri 11 11, 1111"
*VENDOR "OpenRCX"
*PROGRAM "Parallel Extraction"
*VERSION "1.0"
*DESIGN_FLOW "NAME_SCOPE LOCAL" "PIN_CAP NONE"
*DIVIDER /
*DELIMITER :
*BUS_DELIMITER []
*T_UNIT 1 NS
*C_UNIT 1 PF
*R_UNIT 1 OHM
*L_UNIT 1 HENRY

*NAME_MAP
*1 C
*4 clk
*5 light_farm[0]
*6 light_farm[1]
*7 light_farm[2]
*8 light_highway[0]
*9 light_highway[1]
*10 light_highway[2]
*11 rst_n
*12 _00_
*13 _01_
*14 _02_
*15 _03_
*16 _04_
*17 clknet_0_clk
*18 clknet_1_0__leaf_clk
*19 clknet_1_1__leaf_clk
*20 net1
*21 net2
*22 net3
*23 net4
*24 net5
*25 net6
*26 net7
*27 next_state\[0\]
*28 next_state\[1\]
*29 state\[0\]
*30 state\[1\]
*31 FILLER_0_105
*32 FILLER_0_20
*33 FILLER_0_29
*34 FILLER_0_3
*35 FILLER_0_41
*36 FILLER_0_53
*37 FILLER_0_57
*38 FILLER_0_63
*39 FILLER_0_75
*40 FILLER_0_8
*41 FILLER_0_83
*42 FILLER_0_85
*43 FILLER_0_97
*44 FILLER_10_101
*45 FILLER_10_107
*46 FILLER_10_15
*47 FILLER_10_27
*48 FILLER_10_29
*49 FILLER_10_3
*50 FILLER_10_41
*51 FILLER_10_65
*52 FILLER_10_77
*53 FILLER_10_83
*54 FILLER_10_85
*55 FILLER_10_93
*56 FILLER_11_105
*57 FILLER_11_15
*58 FILLER_11_27
*59 FILLER_11_3
*60 FILLER_11_39
*61 FILLER_11_51
*62 FILLER_11_55
*63 FILLER_11_57
*64 FILLER_11_62
*65 FILLER_11_74
*66 FILLER_11_82
*67 FILLER_12_105
*68 FILLER_12_15
*69 FILLER_12_27
*70 FILLER_12_29
*71 FILLER_12_3
*72 FILLER_12_41
*73 FILLER_12_47
*74 FILLER_12_51
*75 FILLER_12_63
*76 FILLER_12_75
*77 FILLER_12_83
*78 FILLER_12_85
*79 FILLER_12_97
*80 FILLER_13_106
*81 FILLER_13_15
*82 FILLER_13_23
*83 FILLER_13_3
*84 FILLER_13_30
*85 FILLER_13_42
*86 FILLER_13_54
*87 FILLER_13_57
*88 FILLER_13_69
*89 FILLER_13_73
*90 FILLER_13_94
*91 FILLER_14_105
*92 FILLER_14_15
*93 FILLER_14_27
*94 FILLER_14_29
*95 FILLER_14_3
*96 FILLER_14_41
*97 FILLER_14_53
*98 FILLER_14_65
*99 FILLER_14_77
*100 FILLER_14_83
*101 FILLER_14_85
*102 FILLER_14_97
*103 FILLER_15_105
*104 FILLER_15_20
*105 FILLER_15_3
*106 FILLER_15_45
*107 FILLER_15_53
*108 FILLER_15_57
*109 FILLER_15_69
*110 FILLER_15_81
*111 FILLER_15_93
*112 FILLER_16_105
*113 FILLER_16_15
*114 FILLER_16_22
*115 FILLER_16_29
*116 FILLER_16_3
*117 FILLER_16_41
*118 FILLER_16_53
*119 FILLER_16_65
*120 FILLER_16_77
*121 FILLER_16_83
*122 FILLER_16_85
*123 FILLER_16_97
*124 FILLER_17_106
*125 FILLER_17_21
*126 FILLER_17_27
*127 FILLER_17_29
*128 FILLER_17_3
*129 FILLER_17_35
*130 FILLER_17_47
*131 FILLER_17_55
*132 FILLER_17_57
*133 FILLER_17_69
*134 FILLER_17_81
*135 FILLER_17_85
*136 FILLER_17_9
*137 FILLER_17_93
*138 FILLER_17_98
*139 FILLER_1_105
*140 FILLER_1_15
*141 FILLER_1_27
*142 FILLER_1_3
*143 FILLER_1_39
*144 FILLER_1_51
*145 FILLER_1_55
*146 FILLER_1_57
*147 FILLER_1_69
*148 FILLER_1_81
*149 FILLER_1_93
*150 FILLER_2_105
*151 FILLER_2_15
*152 FILLER_2_27
*153 FILLER_2_29
*154 FILLER_2_3
*155 FILLER_2_41
*156 FILLER_2_47
*157 FILLER_2_56
*158 FILLER_2_68
*159 FILLER_2_80
*160 FILLER_2_85
*161 FILLER_2_90
*162 FILLER_2_97
*163 FILLER_3_100
*164 FILLER_3_15
*165 FILLER_3_27
*166 FILLER_3_3
*167 FILLER_3_39
*168 FILLER_3_51
*169 FILLER_3_55
*170 FILLER_3_57
*171 FILLER_3_69
*172 FILLER_3_76
*173 FILLER_3_88
*174 FILLER_4_105
*175 FILLER_4_15
*176 FILLER_4_27
*177 FILLER_4_29
*178 FILLER_4_3
*179 FILLER_4_41
*180 FILLER_4_53
*181 FILLER_4_65
*182 FILLER_4_69
*183 FILLER_4_76
*184 FILLER_4_85
*185 FILLER_4_97
*186 FILLER_5_105
*187 FILLER_5_15
*188 FILLER_5_27
*189 FILLER_5_3
*190 FILLER_5_39
*191 FILLER_5_51
*192 FILLER_5_55
*193 FILLER_5_57
*194 FILLER_5_69
*195 FILLER_5_81
*196 FILLER_5_93
*197 FILLER_6_106
*198 FILLER_6_15
*199 FILLER_6_27
*200 FILLER_6_29
*201 FILLER_6_3
*202 FILLER_6_41
*203 FILLER_6_53
*204 FILLER_6_65
*205 FILLER_6_77
*206 FILLER_6_83
*207 FILLER_6_85
*208 FILLER_6_97
*209 FILLER_7_105
*210 FILLER_7_15
*211 FILLER_7_27
*212 FILLER_7_3
*213 FILLER_7_39
*214 FILLER_7_51
*215 FILLER_7_55
*216 FILLER_7_57
*217 FILLER_7_69
*218 FILLER_7_81
*219 FILLER_7_93
*220 FILLER_8_105
*221 FILLER_8_15
*222 FILLER_8_27
*223 FILLER_8_29
*224 FILLER_8_3
*225 FILLER_8_41
*226 FILLER_8_53
*227 FILLER_8_65
*228 FILLER_8_77
*229 FILLER_8_83
*230 FILLER_8_85
*231 FILLER_8_97
*232 FILLER_9_105
*233 FILLER_9_15
*234 FILLER_9_27
*235 FILLER_9_3
*236 FILLER_9_35
*237 FILLER_9_39
*238 FILLER_9_51
*239 FILLER_9_55
*240 FILLER_9_57
*241 FILLER_9_69
*242 FILLER_9_93
*243 PHY_0
*244 PHY_1
*245 PHY_10
*246 PHY_11
*247 PHY_12
*248 PHY_13
*249 PHY_14
*250 PHY_15
*251 PHY_16
*252 PHY_17
*253 PHY_18
*254 PHY_19
*255 PHY_2
*256 PHY_20
*257 PHY_21
*258 PHY_22
*259 PHY_23
*260 PHY_24
*261 PHY_25
*262 PHY_26
*263 PHY_27
*264 PHY_28
*265 PHY_29
*266 PHY_3
*267 PHY_30
*268 PHY_31
*269 PHY_32
*270 PHY_33
*271 PHY_34
*272 PHY_35
*273 PHY_4
*274 PHY_5
*275 PHY_6
*276 PHY_7
*277 PHY_8
*278 PHY_9
*279 TAP_36
*280 TAP_37
*281 TAP_38
*282 TAP_39
*283 TAP_40
*284 TAP_41
*285 TAP_42
*286 TAP_43
*287 TAP_44
*288 TAP_45
*289 TAP_46
*290 TAP_47
*291 TAP_48
*292 TAP_49
*293 TAP_50
*294 TAP_51
*295 TAP_52
*296 TAP_53
*297 TAP_54
*298 TAP_55
*299 TAP_56
*300 TAP_57
*301 TAP_58
*302 TAP_59
*303 TAP_60
*304 TAP_61
*305 TAP_62
*306 TAP_63
*307 TAP_64
*308 TAP_65
*309 _05_
*310 _06_
*311 _07_
*312 _08_
*313 _09_
*314 _10_
*315 _11_
*316 _12_
*317 _14_
*318 _15_
*319 _16_
*320 _17_
*321 _18_
*322 _19_
*323 clkbuf_0_clk
*324 clkbuf_1_0__f_clk
*325 clkbuf_1_1__f_clk
*326 input1
*327 input2
*328 output3
*329 output4
*330 output5
*331 output6
*332 output7

*PORTS
C I
clk I
light_farm[0] O
light_farm[1] O
light_farm[2] O
light_highway[0] O
light_highway[1] O
light_highway[2] O
rst_n I

*D_NET *1 0.00134176
*CONN
*P C I
*I *326:A I *D sky130_fd_sc_hd__clkbuf_1
*CAP
1 C 0.000670881
2 *326:A 0
3 *1:8 0.000670881
*RES
1 C *1:8 31.9443 
2 *1:8 *326:A 23 
*END

*D_NET *4 0.00432106
*CONN
*P clk I
*I *323:A I *D sky130_fd_sc_hd__clkbuf_16
*CAP
1 clk 0.000869937
2 *323:A 0
3 *4:11 0.00129059
4 *4:8 0.00216053
5 *4:11 *16:8 0
6 *4:11 *21:8 0
*RES
1 clk *4:8 37.0193 
2 *4:8 *4:11 48.9507 
3 *4:11 *323:A 38 
*END

*D_NET *5 0.000951112
*CONN
*P light_farm[0] O
*I *328:X O *D sky130_fd_sc_hd__buf_2
*CAP
1 light_farm[0] 0.000410528
2 *328:X 6.50276e-05
3 *5:7 0.000475556
4 *5:7 *328:A 0
*RES
1 *328:X *5:7 39.5743 
2 *5:7 light_farm[0] 10.8129 
*END

*D_NET *6 0.000534752
*CONN
*P light_farm[1] O
*I *329:X O *D sky130_fd_sc_hd__buf_2
*CAP
1 light_farm[1] 0.000267376
2 *329:X 0.000267376
*RES
1 *329:X light_farm[1] 47.4224 
*END

*D_NET *8 0.00101277
*CONN
*P light_highway[0] O
*I *330:X O *D sky130_fd_sc_hd__buf_2
*CAP
1 light_highway[0] 0.0003036
2 *330:X 0.000202783
3 *8:7 0.000506383
*RES
1 *330:X *8:7 42.9093 
2 *8:7 light_highway[0] 7.99571 
*END

*D_NET *9 0.000655335
*CONN
*P light_highway[1] O
*I *331:X O *D sky130_fd_sc_hd__buf_2
*CAP
1 light_highway[1] 0.000327667
2 *331:X 0.000327667
*RES
1 *331:X light_highway[1] 49.4494 
*END

*D_NET *10 0.00118726
*CONN
*P light_highway[2] O
*I *332:X O *D sky130_fd_sc_hd__buf_2
*CAP
1 light_highway[2] 0.000410528
2 *332:X 0.000183104
3 *10:7 0.000593632
*RES
1 *332:X *10:7 42.4329 
2 *10:7 light_highway[2] 10.8129 
*END

*D_NET *11 0.000811932
*CONN
*P rst_n I
*I *327:A I *D sky130_fd_sc_hd__clkbuf_1
*CAP
1 rst_n 0.000405966
2 *327:A 0.000405966
*RES
1 rst_n *327:A 49.8153 
*END

*D_NET *12 0.00823375
*CONN
*I *315:B I *D sky130_fd_sc_hd__and2_1
*I *310:B I *D sky130_fd_sc_hd__nor2_1
*I *314:B I *D sky130_fd_sc_hd__xor2_1
*I *317:A_N I *D sky130_fd_sc_hd__and2b_1
*I *319:A I *D sky130_fd_sc_hd__clkbuf_1
*I *313:A1 I *D sky130_fd_sc_hd__o21ba_1
*I *311:B I *D sky130_fd_sc_hd__and2b_1
*I *309:X O *D sky130_fd_sc_hd__clkbuf_2
*CAP
1 *315:B 2.56688e-05
2 *310:B 0
3 *314:B 0
4 *317:A_N 2.56688e-05
5 *319:A 0.000515515
6 *313:A1 0.000344389
7 *311:B 0
8 *309:X 8.28804e-05
9 *12:66 0.000619613
10 *12:34 0.00107901
11 *12:30 0.00100891
12 *12:27 0.00164492
13 *12:23 0.000816695
14 *12:22 0.000809953
15 *12:11 0.000703207
16 *12:6 0.000557319
17 *313:A1 *29:33 0
18 *315:B *315:A 0
19 *319:A *25:5 0
20 *319:A *29:33 0
21 *12:23 *29:15 0
22 *12:27 *29:24 0
23 *12:30 *29:24 0
24 *12:30 *29:26 0
25 *12:34 *29:33 0
26 *12:66 *324:A 0
27 *12:66 *29:24 0
28 *12:66 *29:47 0
29 *12:66 *30:5 0
*RES
1 *309:X *12:6 40.2579 
2 *12:6 *12:11 26.3929 
3 *12:11 *311:B 23 
4 *12:11 *12:22 36.6493 
5 *12:22 *12:23 13.485 
6 *12:23 *12:27 6.35929 
7 *12:27 *12:30 35.2171 
8 *12:30 *12:34 20.7793 
9 *12:34 *313:A1 31.41 
10 *12:34 *319:A 35.5529 
11 *12:30 *317:A_N 38.6214 
12 *12:27 *12:66 45.2871 
13 *12:66 *314:B 23 
14 *12:23 *310:B 23 
15 *12:6 *315:B 38.6214 
*END

*D_NET *13 0.000931062
*CONN
*I *312:A I *D sky130_fd_sc_hd__clkbuf_1
*I *311:X O *D sky130_fd_sc_hd__and2b_1
*CAP
1 *312:A 0.000379898
2 *311:X 8.56332e-05
3 *13:6 0.000465531
*RES
1 *311:X *13:6 40.2579 
2 *13:6 *312:A 47.1971 
*END

*D_NET *14 0.00477873
*CONN
*I *316:A I *D sky130_fd_sc_hd__clkbuf_1
*I *315:X O *D sky130_fd_sc_hd__and2_1
*CAP
1 *316:A 0.000143745
2 *315:X 0.000930921
3 *14:8 0.00145845
4 *14:5 0.00224562
5 *14:5 *321:RESET_B 0
6 *14:5 *29:5 0
7 *14:8 *24:8 0
*RES
1 *315:X *14:5 45.5371 
2 *14:5 *14:8 49.655 
3 *14:8 *316:A 41.48 
*END

*D_NET *15 0.000948007
*CONN
*I *318:A I *D sky130_fd_sc_hd__clkbuf_1
*I *317:X O *D sky130_fd_sc_hd__and2b_1
*CAP
1 *318:A 0
2 *317:X 0.000474004
3 *15:8 0.000474004
*RES
1 *317:X *15:8 49.89 
2 *15:8 *318:A 38 
*END

*D_NET *16 0.00366989
*CONN
*I *320:A I *D sky130_fd_sc_hd__clkbuf_1
*I *319:X O *D sky130_fd_sc_hd__clkbuf_1
*CAP
1 *320:A 0.00110804
2 *319:X 0
3 *16:8 0.00183494
4 *16:5 0.000726909
5 *320:A *325:A 0
6 *320:A *19:8 0
7 *4:11 *16:8 0
*RES
1 *319:X *16:5 38 
2 *16:5 *16:8 34.1607 
3 *16:8 *320:A 49.825 
*END

*D_NET *17 0.00162039
*CONN
*I *324:A I *D sky130_fd_sc_hd__clkbuf_16
*I *325:A I *D sky130_fd_sc_hd__clkbuf_16
*I *323:X O *D sky130_fd_sc_hd__clkbuf_16
*CAP
1 *324:A 0.00030118
2 *325:A 0.000212393
3 *323:X 0.000296619
4 *17:6 0.000810193
5 *324:A *29:47 0
6 *320:A *325:A 0
7 *12:66 *324:A 0
*RES
1 *323:X *17:6 45.8921 
2 *17:6 *325:A 43.2614 
3 *17:6 *324:A 45.2914 
*END

*D_NET *18 0.00116866
*CONN
*I *321:CLK I *D sky130_fd_sc_hd__dfrtp_2
*I *324:X O *D sky130_fd_sc_hd__clkbuf_16
*CAP
1 *321:CLK 0
2 *324:X 0
3 *18:9 0.000584329
4 *18:5 0.000584329
5 *18:9 *321:D 0
6 *18:9 *321:RESET_B 0
*RES
1 *324:X *18:5 38 
2 *18:5 *18:9 30.225 
3 *18:9 *321:CLK 23 
*END

*D_NET *19 0.00086929
*CONN
*I *322:CLK I *D sky130_fd_sc_hd__dfrtp_1
*I *325:X O *D sky130_fd_sc_hd__clkbuf_16
*CAP
1 *322:CLK 0
2 *325:X 0.000434645
3 *19:8 0.000434645
4 *320:A *19:8 0
*RES
1 *325:X *19:8 48.9371 
2 *19:8 *322:CLK 38 
*END

*D_NET *20 0.00220713
*CONN
*I *313:A2 I *D sky130_fd_sc_hd__o21ba_1
*I *326:X O *D sky130_fd_sc_hd__clkbuf_1
*CAP
1 *313:A2 0
2 *326:X 0.000517654
3 *20:13 0.000585912
4 *20:5 0.00110357
5 *20:13 *25:5 0
6 *20:13 *29:33 0
*RES
1 *326:X *20:5 35.5321 
2 *20:5 *20:13 44.5414 
3 *20:13 *313:A2 23 
*END

*D_NET *21 0.00458736
*CONN
*I *321:RESET_B I *D sky130_fd_sc_hd__dfrtp_2
*I *322:RESET_B I *D sky130_fd_sc_hd__dfrtp_1
*I *327:X O *D sky130_fd_sc_hd__clkbuf_1
*CAP
1 *321:RESET_B 0.001046
2 *322:RESET_B 0
3 *327:X 0.000466083
4 *21:20 0.00148964
5 *21:12 0.000781593
6 *21:8 0.000804034
7 *321:RESET_B *321:D 0
8 *4:11 *21:8 0
9 *14:5 *321:RESET_B 0
10 *18:9 *321:RESET_B 0
*RES
1 *327:X *21:8 49.7554 
2 *21:8 *21:12 8.87607 
3 *21:12 *322:RESET_B 15 
4 *21:12 *21:20 26.7657 
5 *21:20 *321:RESET_B 25.3232 
*END

*D_NET *22 0.00278201
*CONN
*I *328:A I *D sky130_fd_sc_hd__buf_2
*I *312:X O *D sky130_fd_sc_hd__clkbuf_1
*CAP
1 *328:A 0.00032086
2 *312:X 0.000557013
3 *22:10 0.000833991
4 *22:5 0.00107014
5 *5:7 *328:A 0
*RES
1 *312:X *22:5 36.485 
2 *22:5 *22:10 43.5264 
3 *22:10 *328:A 30.7679 
*END

*D_NET *23 0.00413178
*CONN
*I *329:A I *D sky130_fd_sc_hd__buf_2
*I *316:X O *D sky130_fd_sc_hd__clkbuf_1
*CAP
1 *329:A 0
2 *316:X 0.000537333
3 *23:8 0.00152856
4 *23:7 0.00152856
5 *23:5 0.000537333
*RES
1 *316:X *23:5 36.0086 
2 *23:5 *23:7 15 
3 *23:7 *23:8 40.2893 
4 *23:8 *329:A 38 
*END

*D_NET *24 0.00233575
*CONN
*I *330:A I *D sky130_fd_sc_hd__buf_2
*I *310:Y O *D sky130_fd_sc_hd__nor2_1
*CAP
1 *330:A 0
2 *310:Y 0
3 *24:8 0.00116788
4 *24:5 0.00116788
5 *14:8 *24:8 0
*RES
1 *310:Y *24:5 38 
2 *24:5 *24:8 45.7814 
3 *24:8 *330:A 23 
*END

*D_NET *25 0.00631235
*CONN
*I *331:A I *D sky130_fd_sc_hd__buf_2
*I *318:X O *D sky130_fd_sc_hd__clkbuf_1
*CAP
1 *331:A 0
2 *318:X 0
3 *25:8 0.00159551
4 *25:7 0.00159551
5 *25:5 0.00156066
6 *25:4 0.00156066
7 *25:5 *29:33 0
8 *319:A *25:5 0
9 *20:13 *25:5 0
*RES
1 *318:X *25:4 23 
2 *25:4 *25:5 37.7829 
3 *25:5 *25:7 15 
4 *25:7 *25:8 42.05 
5 *25:8 *331:A 38 
*END

*D_NET *26 0.00176352
*CONN
*I *332:A I *D sky130_fd_sc_hd__buf_2
*I *320:X O *D sky130_fd_sc_hd__clkbuf_1
*CAP
1 *332:A 0
2 *320:X 4.53482e-05
3 *26:10 0.000836414
4 *26:7 0.000881762
*RES
1 *320:X *26:7 39.0979 
2 *26:7 *26:10 36.9779 
3 *26:10 *332:A 23 
*END

*D_NET *27 0.00302938
*CONN
*I *321:D I *D sky130_fd_sc_hd__dfrtp_2
*I *313:X O *D sky130_fd_sc_hd__o21ba_1
*CAP
1 *321:D 0.000127916
2 *313:X 4.53482e-05
3 *27:8 0.00146934
4 *27:7 0.00138677
5 *321:RESET_B *321:D 0
6 *18:9 *321:D 0
*RES
1 *313:X *27:7 39.0979 
2 *27:7 *27:8 35.3593 
3 *27:8 *321:D 41.1693 
*END

*D_NET *28 0.000432094
*CONN
*I *322:D I *D sky130_fd_sc_hd__dfrtp_1
*I *314:X O *D sky130_fd_sc_hd__xor2_1
*CAP
1 *322:D 0
2 *314:X 0.000216047
3 *28:8 0.000216047
*RES
1 *314:X *28:8 43.3857 
2 *28:8 *322:D 38 
*END

*D_NET *29 0.00719204
*CONN
*I *315:A I *D sky130_fd_sc_hd__and2_1
*I *311:A_N I *D sky130_fd_sc_hd__and2b_1
*I *314:A I *D sky130_fd_sc_hd__xor2_1
*I *317:B I *D sky130_fd_sc_hd__and2b_1
*I *313:B1_N I *D sky130_fd_sc_hd__o21ba_1
*I *310:A I *D sky130_fd_sc_hd__nor2_1
*I *321:Q O *D sky130_fd_sc_hd__dfrtp_2
*CAP
1 *315:A 0.000216687
2 *311:A_N 0
3 *314:A 0
4 *317:B 0
5 *313:B1_N 0
6 *310:A 0
7 *321:Q 2.41714e-05
8 *29:47 0.000518509
9 *29:33 0.000717415
10 *29:26 0.00132133
11 *29:24 0.00150235
12 *29:15 0.00132551
13 *29:8 0.0011354
14 *29:5 0.000430668
15 *29:15 *30:5 0
16 *29:24 *30:5 0
17 *313:A1 *29:33 0
18 *315:B *315:A 0
19 *319:A *29:33 0
20 *324:A *29:47 0
21 *12:23 *29:15 0
22 *12:27 *29:24 0
23 *12:30 *29:24 0
24 *12:30 *29:26 0
25 *12:34 *29:33 0
26 *12:66 *29:24 0
27 *12:66 *29:47 0
28 *14:5 *29:5 0
29 *20:13 *29:33 0
30 *25:5 *29:33 0
*RES
1 *321:Q *29:5 23.6214 
2 *29:5 *29:8 20.075 
3 *29:8 *29:15 38.345 
4 *29:15 *310:A 23 
5 *29:15 *29:24 24.5286 
6 *29:24 *29:26 15.9914 
7 *29:26 *29:33 32.7314 
8 *29:33 *313:B1_N 23 
9 *29:26 *317:B 38 
10 *29:24 *29:47 27.5529 
11 *29:47 *314:A 23 
12 *29:8 *311:A_N 38 
13 *29:5 *315:A 28.2821 
*END

*D_NET *30 0.00355506
*CONN
*I *309:A I *D sky130_fd_sc_hd__clkbuf_2
*I *322:Q O *D sky130_fd_sc_hd__dfrtp_1
*CAP
1 *309:A 0.000576692
2 *322:Q 0.000714448
3 *30:10 0.00106308
4 *30:5 0.00120084
5 *12:66 *30:5 0
6 *29:15 *30:5 0
7 *29:24 *30:5 0
*RES
1 *322:Q *30:5 40.2964 
2 *30:5 *30:10 42.8221 
3 *30:10 *309:A 36.9614 
*END
